NeoChargeProject/WH_13_Node/shed_WH_13_Node_feeder.glm
// Imported from GridLAB-D/models folder.
// modified by Midrar Adahm
///////////////////////////////////
/// BEGIN
/////////////////////////////////


module powerflow;
module residential {
	implicit_enduses NONE;
};
//module market;
module tape;
clock {
	timestamp '2020-01-02 00:00:00';
	stoptime '2020-01-03 00:10:00';
    timezone US/OR/Portland;
}

module residential {
	implicit_enduses NONE;
};


class player {
    double value;
}
//class auction {
//    double current_price_mean_24h;
//    double current_price_stdev_24h;
//    double my_avg;
//    double my_std;
//}
object triplex_line_conductor {
	name tp_line_conductor;
	resistance 0.97;
	geometric_mean_radius 0.0111;
};

//////////////////////////////////
/////// SCHEDULES
/////////////////////////////////

schedule demand {
     0-9 0 * * * 0.00;
     10-19 0 * * * 0.00;
     20-29 0 * * * 0.00;
     30-39 0 * * * 0.00;
     40-49 0 * * * 0.00;
     50-59 0 * * * 0.00;
     0-9 1 * * * 0.00;
     10-19 1 * * * 0.00;
     20-29 1 * * * 0.00;
     30-39 1 * * * 0.00;
     40-49 1 * * * 0.00;
     50-59 1 * * * 0.00;
     0-9 2 * * * 0.00;
     10-19 2 * * * 0.00;
     20-29 2 * * * 0.00;
     30-39 2 * * * 0.39;
     40-49 2 * * * 0.00;
     50-59 2 * * * 0.01;
     0-9 3 * * * 0.00;
     10-19 3 * * * 0.00;
     20-29 3 * * * 0.00;
     30-39 3 * * * 0.00;
     40-49 3 * * * 0.00;
     50-59 3 * * * 0.32;
     0-9 4 * * * 0.00;
     10-19 4 * * * 0.00;
     20-29 4 * * * 0.00;
     30-39 4 * * * 0.13;
     40-49 4 * * * 0.00;
     50-59 4 * * * 0.09;
     0-9 5 * * * 0.23;
     10-19 5 * * * 0.00;
     20-29 5 * * * 0.00;
     30-39 5 * * * 0.00;
     40-49 5 * * * 0.00;
     50-59 5 * * * 0.48;
     0-9 6 * * * 0.88;
     10-19 6 * * * 0.00;
     20-29 6 * * * 0.00;
     30-39 6 * * * 0.00;
     40-49 6 * * * 0.00;
     50-59 6 * * * 0.00;
     0-9 7 * * * 0.00;
     10-19 7 * * * 0.00;
     20-29 7 * * * 0.00;
     30-39 7 * * * 0.00;
     40-49 7 * * * 0.00;
     50-59 7 * * * 0.00;
     0-9 8 * * * 0.00;
     10-19 8 * * * 0.00;
     20-29 8 * * * 0.00;
     30-39 8 * * * 0.61;
     40-49 8 * * * 0.00;
     50-59 8 * * * 0.00;
     0-9 9 * * * 0.00;
     10-19 9 * * * 0.00;
     20-29 9 * * * 0.00;
     30-39 9 * * * 0.00;
     40-49 9 * * * 0.00;
     50-59 9 * * * 0.00;
     0-9 10 * * * 0.00;
     10-19 10 * * * 0.00;
     20-29 10 * * * 0.00;
     30-39 10 * * * 0.00;
     40-49 10 * * * 0.00;
     50-59 10 * * * 0.00;
     0-9 11 * * * 0.00;
     10-19 11 * * * 0.00;
     20-29 11 * * * 0.00;
     30-39 11 * * * 0.00;
     40-49 11 * * * 0.00;
     50-59 11 * * * 0.00;
     0-9 12 * * * 0.00;
     10-19 12 * * * 0.00;
     20-29 12 * * * 0.00;
     30-39 12 * * * 0.00;
     40-49 12 * * * 0.00;
     50-59 12 * * * 0.00;
     0-9 13 * * * 0.00;
     10-19 13 * * * 0.00;
     20-29 13 * * * 0.00;
     30-39 13 * * * 0.00;
     40-49 13 * * * 0.00;
     50-59 13 * * * 0.41;
     0-9 14 * * * 0.00;
     10-19 14 * * * 0.12;
     20-29 14 * * * 0.00;
     30-39 14 * * * 0.92;
     40-49 14 * * * 0.30;
     50-59 14 * * * 0.00;
     0-9 15 * * * 0.78;
     10-19 15 * * * 0.00;
     20-29 15 * * * 0.00;
     30-39 15 * * * 0.00;
     40-49 15 * * * 0.00;
     50-59 15 * * * 0.00;
     0-9 16 * * * 0.00;
     10-19 16 * * * 0.00;
     20-29 16 * * * 0.00;
     30-39 16 * * * 0.00;
     40-49 16 * * * 0.00;
     50-59 16 * * * 0.25;
//    50-59 16 * * * 5;
     0-9 17 * * * 0.00;
     10-19 17 * * * 0.00;
     20-29 17 * * * 0.00;
     30-39 17 * * * 0.00;
     40-49 17 * * * 0.00;
     50-59 17 * * * 0.00;
     0-9 18 * * * 0.00;
     10-19 18 * * * 0.16;
     20-29 18 * * * 0.00;
     30-39 18 * * * 0.00;
     40-49 18 * * * 0.00;
     50-59 18 * * * 0.00;
     0-9 19 * * * 0.00;
     10-19 19 * * * 0.00;
     20-29 19 * * * 0.00;
     30-39 19 * * * 0.00;
     40-49 19 * * * 0.00;
     50-59 19 * * * 0.00;
     0-9 20 * * * 0.00;
     10-19 20 * * * 0.00;
     20-29 20 * * * 0.00;
     30-39 20 * * * 0.00;
     40-49 20 * * * 0.00;
     50-59 20 * * * 0.00;
     0-9 21 * * * 0.00;
     10-19 21 * * * 0.00;
     20-29 21 * * * 0.00;
     30-39 21 * * * 0.00;
     40-49 21 * * * 0.00;
     50-59 21 * * * 0.00;
     0-9 22 * * * 0.00;
     10-19 22 * * * 0.00;
     20-29 22 * * * 0.00;
     30-39 22 * * * 0.00;
     40-49 22 * * * 0.00;
     50-59 22 * * * 0.00;
     0-9 23 * * * 0.00;
     10-19 23 * * * 0.00;
     20-29 23 * * * 0.00;
     30-39 23 * * * 0.00;
     40-49 23 * * * 0.00;
     50-59 23 * * * 0.00;
}


schedule setpoint {
     0-9 16 * * * 119;
     10-19 16 * * * 119;
     20-29 16 * * * 119;
     30-39 16 * * * 119;
     40-49 16 * * * 119;
     50-59 16 * * * 119;
     0-9 17 * * * 117;
     10-19 17 * * * 117;
     20-29 17 * * * 117;
     30-39 17 * * * 117;
     40-49 17 * * * 117;
     50-59 17 * * * 117;
     0-9 18 * * * 117;
     10-19 18 * * * 117;
     20-29 18 * * * 117;
     30-39 18 * * * 117;
     40-49 18 * * * 117;
     50-59 18 * * * 117;
     0-9 19 * * * 119;
     10-19 19 * * * 119;
     20-29 19 * * * 119;
     30-39 19 * * * 119;
     40-49 19 * * * 119;
     50-59 19 * * * 119;
     0-9 20 * * * 119;
     10-19 20 * * * 119;
     20-29 20 * * * 119;
     30-39 20 * * * 119;
     40-49 20 * * * 119;
     50-59 20 * * * 119;
     0-9 21 * * * 119;
     10-19 21 * * * 119;
     20-29 21 * * * 119;
     30-39 21 * * * 119;
     40-49 21 * * * 119;
     50-59 21 * * * 119;
     0-9 22 * * * 119;
     10-19 22 * * * 119;
     20-29 22 * * * 119;
     30-39 22 * * * 119;
     40-49 22 * * * 119;
     50-59 22 * * * 119;
     0-9 23 * * * 119;
     10-19 23 * * * 119;
     20-29 23 * * * 119;
     30-39 23 * * * 119;
     40-49 23 * * * 119;
     50-59 23 * * * 119;
     0-9 0 * * * 119;
     10-19 0 * * * 119;
     20-29 0 * * * 119;
     30-39 0 * * * 119;
     40-49 0 * * * 119;
     50-59 0 * * * 119;
     0-9 1 * * * 119;
     10-19 1 * * * 119;
     20-29 1 * * * 119;
     30-39 1 * * * 119;
     40-49 1 * * * 119;
     50-59 1 * * * 119;
     0-9 2 * * * 119;
     10-19 2 * * * 119;
     20-29 2 * * * 119;
     30-39 2 * * * 119;
     40-49 2 * * * 119;
     50-59 2 * * * 119;
     0-9 3 * * * 119;
     10-19 3 * * * 119;
     20-29 3 * * * 119;
     30-39 3 * * * 119;
     40-49 3 * * * 119;
     50-59 3 * * * 119;
     0-9 4 * * * 119;
     10-19 4 * * * 119;
     20-29 4 * * * 119;
     30-39 4 * * * 119;
     40-49 4 * * * 119;
     50-59 4 * * * 119;
     0-9 5 * * * 119;
     10-19 5 * * * 119;
     20-29 5 * * * 119;
     30-39 5 * * * 119;
     40-49 5 * * * 119;
     50-59 5 * * * 119;
     0-9 6 * * * 119;
     10-19 6 * * * 119;
     20-29 6 * * * 119;
     30-39 6 * * * 119;
     40-49 6 * * * 119;
     50-59 6 * * * 119;
     0-9 7 * * * 119;
     10-19 7 * * * 119;
     20-29 7 * * * 119;
     30-39 7 * * * 119;
     40-49 7 * * * 119;
     50-59 7 * * * 119;
     0-9 8 * * * 119;
     10-19 8 * * * 119;
     20-29 8 * * * 119;
     30-39 8 * * * 119;
     40-49 8 * * * 119;
     50-59 8 * * * 119;
     0-9 9 * * * 119;
     10-19 9 * * * 119;
     20-29 9 * * * 119;
     30-39 9 * * * 119;
     40-49 9 * * * 119;
     50-59 9 * * * 119;
     0-9 10 * * * 119;
     10-19 10 * * * 119;
     20-29 10 * * * 119;
     30-39 10 * * * 119;
     40-49 10 * * * 119;
     50-59 10 * * * 119;
     0-9 11 * * * 119;
     10-19 11 * * * 119;
     20-29 11 * * * 119;
     30-39 11 * * * 119;
     40-49 11 * * * 119;
     50-59 11 * * * 119;
     0-9 12 * * * 119;
     10-19 12 * * * 119;
     20-29 12 * * * 119;
     30-39 12 * * * 119;
     40-49 12 * * * 119;
     50-59 12 * * * 119;
     0-9 13 * * * 119;
     10-19 13 * * * 119;
     20-29 13 * * * 119;
     30-39 13 * * * 119;
     40-49 13 * * * 119;
     50-59 13 * * * 119;
     0-9 14 * * * 119;
     10-19 14 * * * 119;
     20-29 14 * * * 119;
     30-39 14 * * * 119;
     40-49 14 * * * 119;
     50-59 14 * * * 119;
     0-9 15 * * * 119;
     10-19 15 * * * 119;
     20-29 15 * * * 119;
     30-39 15 * * * 119;
     40-49 15 * * * 119;
     50-59 15 * * * 119; 
}
schedule waterdemand1 {
	* 0-5 * * * 0;
	0-16 6 * * * 0;
	17-34 6 * * * 0.2;
	35-59 6 * * * 0.4;
	0-11 7 * * * 0.3;
	12-59 7 * * * 0;
	* 8-16 * * * .05;
	* 17 * * * 0;
	0-15 18 * * * 0;
	16-59 18 * * * 0.8;
	* 19-21 * * * 0;
	00-45 22 * * * 0;
	46-59 22 * * * 0.6;
	* 23 * * * 0;
}

schedule waterdemand2 {
	* 0-4 * * * 0;
	0-10 5 * * * .4;
	11-37 5 * * * 0.1;
	38-59 5 * * * 0.6;
	0-16 6 * * * 0.4;
	17-59 6 * * * 0;
	* 7-16 * * * 0.01;
	0-12 17 * * * 0.5;
	13-59 17 * * * 0;
	* 18-23 * * * 0;
}

schedule waterdemand3 {
	* 0-6 * * * 0;
	0-16 7 * * * 0;
	17-34 7 * * * 0.4;
	35-59 7 * * * 0.8;
	0-11 8 * * * 0.1;
	12-59 8 * * * 0;
	* 9-15 * * * 0.005;
	* 16 * * * 0.1;
	* 17 * * * 0.2;
	0-27 18 * * * 0.7;
	28-59 18 * * * 0;
	* 19-23 * * * 0;
}

schedule heatingsetpoint1 {
	* 0-4 * * * 60;
	* 5 * * * 70;
	00-30 6 * * * 70;
	31-59 6 * * * 60;
}
// Triplex Line
object triplex_line_configuration {
	name triplex_line_configuration_1;
	conductor_1 tp_line_conductor;
	conductor_2 tp_line_conductor;
	conductor_N tp_line_conductor;
	insulation_thickness 0.08;
	diameter 0.368;
}

// Phase Conductor for 601: 556,500 26/7 ACSR
object overhead_line_conductor:6010 {
	geometric_mean_radius 0.031300;
	resistance 0.185900;
}

// Phase Conductor for 602: 4/0 6/1 ACSR
object overhead_line_conductor:6020 {
	geometric_mean_radius 0.00814;
	resistance 0.592000;
}

// Phase Conductor for 603, 604, 605: 1/0 ACSR
object overhead_line_conductor:6030 {
	geometric_mean_radius 0.004460;
	resistance 1.120000;
}

// Phase Conductor for 606: 250,000 AA,CN
object underground_line_conductor:6060 {
	outer_diameter 1.290000;
	conductor_gmr 0.017100;
	conductor_diameter 0.567000;
	conductor_resistance 0.410000;
	neutral_gmr 0.0020800;
	neutral_resistance 14.87200;
	neutral_diameter 0.0640837;
	neutral_strands 13.000000;
	shield_gmr 0.000000;
	shield_resistance 0.000000;
}

// Phase Conductor for 607: 1/0 AA,TS N: 1/0 Cu
object underground_line_conductor:6070 {
	outer_diameter 1.060000;
	conductor_gmr 0.011100;
	conductor_diameter 0.368000;
	conductor_resistance 0.970000;
	neutral_gmr 0.011100;
	neutral_resistance 0.970000;
	neutral_diameter 0.0640837;
	neutral_strands 6.000000;
	shield_gmr 0.000000;
	shield_resistance 0.000000;
}

// Overhead line configurations
object line_spacing:500601 {
	distance_AB 2.5;
	distance_AC 4.5;
	distance_BC 7.0;
	distance_BN 5.656854;
	distance_AN 4.272002;
	distance_CN 5.0;
}

// Overhead line configurations
object line_spacing:500602 {
	distance_AC 2.5;
	distance_AB 4.5;
	distance_BC 7.0;
	distance_CN 5.656854;
	distance_AN 4.272002;
	distance_BN 5.0;
}

object line_spacing:505603 {
	distance_AC 0.0;
	distance_AB 0.0;
	distance_BC 7.0;
	distance_AN 0.0;
	distance_CN 5.656854;
	distance_BN 5.0;
}

object line_spacing:505604 {
	distance_AC 7.0;
	distance_AB 0.0;
	distance_BC 0.0;
	distance_AN 5.656854;
	distance_CN 5.0;
	distance_BN 0.0;
}

object line_spacing:510 {
	distance_AC 0.0;
	distance_AB 0.0;
	distance_BC 0.0;
	distance_AN 0.0;
	distance_CN 5.0;
	distance_BN 0.0;
	}

object line_configuration:601 {
	conductor_A overhead_line_conductor:6010;
	conductor_B overhead_line_conductor:6010;
	conductor_C overhead_line_conductor:6010;
	conductor_N overhead_line_conductor:6020;
	spacing line_spacing:500601;
}

object line_configuration:602 {
	conductor_A overhead_line_conductor:6020;
	conductor_B overhead_line_conductor:6020;
	conductor_C overhead_line_conductor:6020;
	conductor_N overhead_line_conductor:6020;
	spacing line_spacing:500602;
}

object line_configuration:603 {
	conductor_B overhead_line_conductor:6030;
	conductor_C overhead_line_conductor:6030;
	conductor_N overhead_line_conductor:6030;
	spacing line_spacing:505603;
}

object line_configuration:604 {
	conductor_A overhead_line_conductor:6030;
	conductor_C overhead_line_conductor:6030;
	conductor_N overhead_line_conductor:6030;
	spacing line_spacing:505604;
}

object line_configuration:605 {
	conductor_C overhead_line_conductor:6030;
	conductor_N overhead_line_conductor:6030;
	spacing line_spacing:510;
}

// Underground line configuration
object line_spacing:515 {
	distance_AB 0.500000;
	distance_BC 0.500000;
	distance_AC 1.000000;
	distance_AN 0.000000;
	distance_BN 0.000000;
	distance_CN 0.000000;
}

object line_spacing:520 {
	distance_AB 0.000000;
	distance_BC 0.000000;
	distance_AC 0.000000;
	distance_AN 0.083333;
	distance_BN 0.000000;
	distance_CN 0.000000;
}

object line_configuration:606 {
	conductor_A underground_line_conductor:6060;
	conductor_B underground_line_conductor:6060;
	conductor_C underground_line_conductor:6060;
	spacing line_spacing:515;
}

object line_configuration:607 {
	conductor_A underground_line_conductor:6070;
	conductor_N underground_line_conductor:6070;
	spacing line_spacing:520;
}

// Define line objects
object overhead_line:632645 {
	phases "BCN";
	name OL632-645;
	from node:632;
	to node:645;
	length 500;
	configuration line_configuration:603;
}

object overhead_line:645646 {
	phases "BCN";
	name OL645-646;
	from node:645;
	to node:646;
	length 300;
	configuration line_configuration:603;
}

object overhead_line:630632 {
	phases "ABCN";
	name OL630-632;
	from node:630;
	to node:632;
	length 2000;
	configuration line_configuration:601;
}

// Split line for distributed load
object overhead_line:6326321 {
	phases "ABCN";
	name OL632-6321;
	from node:632;
	to node:6321;
	length 500;
	configuration line_configuration:601;
}

object overhead_line:6321671 {
	phases "ABCN";
	name OL6321-671;
	from node:6321;
	to node:671;
	length 1500;
	configuration line_configuration:601;
}

// End split line
object overhead_line:671680 {
	phases "ABCN";
	name OL671-680;
	from node:671;
	to node:680;
	length 1000;
	configuration line_configuration:601;
}



object overhead_line:671684 {
	phases "ACN";
	name OL671-684;
	from node:671;
	to node:684;
	length 300;
	configuration line_configuration:604;
}

object overhead_line:684611 {
	phases "CN";
	name OL684-611;
	from node:684;
	to node:611;
	length 300;
	configuration line_configuration:605;
}

object underground_line:684652 {
	phases "AN";
	name OL684-652;
	from node:684;
	to node:652;
	length 800;
	configuration line_configuration:607;
}

object underground_line:692675 {
	phases "ABC";
	name OL692-675;
	from node:692;
	to node:675;
	length 500;
	configuration line_configuration:606;
}

object overhead_line:632633 {
	phases "ABCN";
	name OL632-633;
	from node:632;
	to node:633;
	length 500;
	configuration line_configuration:602;
}

// Create node objects
object node:633 {
	name N633;
	phases "ABCN";
	voltage_A 2401.7771;
	voltage_B -1200.8886-2080.000j;
	voltage_C -1200.8886+2080.000j;
	nominal_voltage 2401.7771;
}

object node:630 {
	name N630;
	phases "ABCN";
	voltage_A 2401.7771+0j;
	voltage_B -1200.8886-2080.000j;
	voltage_C -1200.8886+2080.000j;
	nominal_voltage 2401.7771;
}

object node:632 {
	name N632;
	phases "ABCN";
	voltage_A 2401.7771;
	voltage_B -1200.8886-2080.000j;
	voltage_C -1200.8886+2080.000j;
	nominal_voltage 2401.7771;
}

object node:650 {
	name N650;
	phases "ABCN";
	bustype SWING;
	voltage_A 2401.7771;
	voltage_B -1200.8886-2080.000j;
	voltage_C -1200.8886+2080.000j;
	nominal_voltage 2401.7771;
}

object node:671 {
	name N671;
	phases "ABCN";
	voltage_A 2401.7771;
	voltage_B -1200.8886-2080.000j;
	voltage_C -1200.8886+2080.000j;
	nominal_voltage 2401.7771;
}

object node:680 {
	name N680;
	phases "ABCN";
	voltage_A 2401.7771;
	voltage_B -1200.8886-2080.000j;
	voltage_C -1200.8886+2080.000j;
	nominal_voltage 2401.7771;
}


object node:684 {
	name N684;
	phases "ACN";
	voltage_A 2401.7771;
	voltage_B -1200.8886-2080.000j;
	voltage_C -1200.8886+2080.000j;
	nominal_voltage 2401.7771;
}

// distributed load between node 632 and 671
// 2/3 of load 1/4 of length down line:
object node:6711 {
	name N6711;
	parent N611;
	phases "CN";
	voltage_C -1200.8886+2080.000j;
	nominal_voltage 2401.7771;
}

object node:6321 {
	name N6321;
	phases "ABCN";
	voltage_A 2401.7771;
	voltage_B -1200.8886-2080.000j;
	voltage_C -1200.8886+2080.000j;
	nominal_voltage 2401.7771;
}

// Create node objects with attached loads
object node:611 {
	name N611;
	phases "CN";
	voltage_C -1200.8886+2080.000j;
	nominal_voltage 2401.7771;
}

object node:634 {
	name N634;
	phases "ABCN";
	voltage_A 480.000+0j;
	voltage_B -240.000-415.6922j;
	voltage_C -240.000+415.6922j;
	nominal_voltage 480.000;
}

object node:645 {
	name N645;
	phases "BCN";
	voltage_A 2401.7771;
	voltage_B -1200.8886-2080.000j;
	voltage_C -1200.8886+2080.000j;
	nominal_voltage 2401.7771;
}

object node:646 {
	name N646;
	phases "BCN";
	voltage_A 2401.7771;
	voltage_B -1200.8886-2080.000j;
	voltage_C -1200.8886+2080.000j;
	nominal_voltage 2401.7771;
}

object node:652 {
	name N652;
	phases "AN";
	voltage_A 2401.7771;
	voltage_B -1200.8886-2080.000j;
	voltage_C -1200.8886+2080.000j;
	nominal_voltage 2401.7771;
}

object node:675 {
	name N675;
	phases "ABCN";
	voltage_A 2401.7771;
	voltage_B -1200.8886-2080.000j;
	voltage_C -1200.8886+2080.000j;
	nominal_voltage 2401.7771;
}

object node:692 {
	name N692;
	phases "ABCN";
	voltage_A 2401.7771;
	voltage_B -1200.8886-2080.000j;
	voltage_C -1200.8886+2080.000j;
	nominal_voltage 2401.7771;
}

object transformer {
	name center_tap_1;
	phases CS;
	from node:611;
	to trip_node1;
	configuration CS_config;
}

object transformer {
	name center_tap_2;
	phases AS;
	from node:634;
	to trip_node2;
	configuration AS_config_node634;
}

object transformer {
	name center_tap_3;
	phases BS;
	from node:634;
	to trip_node3;
	configuration BS_config_node634;
}

object transformer {
	name center_tap_4;
	phases CS;
	from node:634;
	to trip_node4;
	configuration CS_config_node634;
}

object transformer {
	name center_tap_5;
	phases BS;
	from node:645;
	to trip_node5;
	configuration BS_config;
}

object transformer {
	name center_tap_6;
	phases CS;
	from node:645;
	to trip_node6;
	configuration CS_config;
}

object transformer {
	name center_tap_7;
	phases BS;
	from node:646;
	to trip_node7;
	configuration BS_config;
}

object transformer {
	name center_tap_8;
	phases CS;
	from node:646;
	to trip_node8;
	configuration CS_config;
}

object transformer {
	name center_tap_9;
	phases AS;
	from node:652;
	to trip_node9;
	configuration AS_config;
}

object transformer {
	name center_tap_10;
	phases AS;
	from node:675;
	to trip_node10;
	configuration AS_config;
}

object transformer {
	name center_tap_11;
	phases BS;
	from node:675;
	to trip_node11;
	configuration BS_config;
}

object transformer {
	name center_tap_12;
	phases CS;
	from node:675;
	to trip_node12;
	configuration CS_config;
}

object transformer {
	name center_tap_13;
	phases AS;
	from node:692;
	to trip_node13;
	configuration AS_config;
}

object transformer {
	name center_tap_14;
	phases BS;
	from node:692;
	to trip_node14;
	configuration BS_config;
}

object transformer {
	name center_tap_15;
	phases CS;
	from node:692;
	to trip_node15;
	configuration CS_config;
}

object triplex_node {
	name trip_node1;
	phases CS;
	nominal_voltage 120;
}

object triplex_node {
	name trip_node2;
	phases AS;
	nominal_voltage 120;
}

object triplex_node {
	name trip_node3;
	phases BS;
	nominal_voltage 120;
}

object triplex_node {
	name trip_node4;
	phases CS;
	nominal_voltage 120;
}

object triplex_node {
	name trip_node5;
	phases BS;
	nominal_voltage 120;
}

object triplex_node {
	name trip_node6;
	phases CS;
	nominal_voltage 120;
}

object triplex_node {
	name trip_node7;
	phases BS;
	nominal_voltage 120;
}

object triplex_node {
	name trip_node8;
	phases CS;
	nominal_voltage 120;
}

object triplex_node {
	name trip_node9;
	phases AS;
	nominal_voltage 120;
}

object triplex_node {
	name trip_node10;
	phases AS;
	nominal_voltage 120;
}

object triplex_node {
	name trip_node11;
	phases BS;
	nominal_voltage 120;
}

object triplex_node {
	name trip_node12;
	phases CS;
	nominal_voltage 120;
}

object triplex_node {
	name trip_node13;
	phases AS;
	nominal_voltage 120;
}

object triplex_node {
	name trip_node14;
	phases BS;
	nominal_voltage 120;
}

object triplex_node {
	name trip_node15;
	phases CS;
	nominal_voltage 120;
}

object triplex_line {
	name trip_line1;
	phases CS;
	from trip_node1;
	to trip_meter1;
	length 100;
	configuration triplex_line_configuration_1;
}

object triplex_line {
	name trip_line2;
	phases AS;
	from trip_node2;
	to trip_meter2;
	length 100;
	configuration triplex_line_configuration_1;
}

object triplex_line {
	name trip_line3;
	phases BS;
	from trip_node3;
	to trip_meter3;
	length 100;
	configuration triplex_line_configuration_1;
}

object triplex_line {
	name trip_line4;
	phases CS;
	from trip_node4;
	to trip_meter4;
	length 100;
	configuration triplex_line_configuration_1;
}

object triplex_line {
	name trip_line5;
	phases BS;
	from trip_node5;
	to trip_meter5;
	length 100;
	configuration triplex_line_configuration_1;
}

object triplex_line {
	name trip_line6;
	phases CS;
	from trip_node6;
	to trip_meter6;
	length 100;
	configuration triplex_line_configuration_1;
}

object triplex_line {
	name trip_line7;
	phases BS;
	from trip_node7;
	to trip_meter7;
	length 100;
	configuration triplex_line_configuration_1;
}

object triplex_line {
	name trip_line8;
	phases CS;
	from trip_node8;
	to trip_meter8;
	length 100;
	configuration triplex_line_configuration_1;
}

object triplex_line {
	name trip_line9;
	phases AS;
	from trip_node9;
	to trip_meter9;
	length 100;
	configuration triplex_line_configuration_1;
}

object triplex_line {
	name trip_line10;
	phases AS;
	from trip_node10;
	to trip_meter10;
	length 100;
	configuration triplex_line_configuration_1;
}

object triplex_line {
	name trip_line11;
	phases BS;
	from trip_node11;
	to trip_meter11;
	length 100;
	configuration triplex_line_configuration_1;
}

object triplex_line {
	name trip_line12;
	phases CS;
	from trip_node12;
	to trip_meter12;
	length 100;
	configuration triplex_line_configuration_1;
}

object triplex_line {
	name trip_line13;
	phases AS;
	from trip_node13;
	to trip_meter13;
	length 100;
	configuration triplex_line_configuration_1;
}

object triplex_line {
	name trip_line14;
	phases BS;
	from trip_node14;
	to trip_meter14;
	length 100;
	configuration triplex_line_configuration_1;
}

object triplex_line {
	name trip_line15;
	phases CS;
	from trip_node15;
	to trip_meter15;
	length 100;
	configuration triplex_line_configuration_1;
}

// House 1 meter
object triplex_meter {
	name trip_meter1;
	phases CS;
	nominal_voltage 120;
}

// House 2 meter
object triplex_meter {
	name trip_meter2;
	phases AS;
	nominal_voltage 120;
}

// House 3 meter
object triplex_meter {
	name trip_meter3;
	phases BS;
	nominal_voltage 120;
}

// House 4 meter
object triplex_meter {
	name trip_meter4;
	phases CS;
	nominal_voltage 120;
}

// House 5 meter
object triplex_meter {
	name trip_meter5;
	phases BS;
	nominal_voltage 120;
}

// House 6 meter
object triplex_meter {
	name trip_meter6;
	phases CS;
	nominal_voltage 120;
}

// House 7 meter
object triplex_meter {
	name trip_meter7;
	phases BS;
	nominal_voltage 120;
}

// House 8 meter
object triplex_meter {
	name trip_meter8;
	phases CS;
	nominal_voltage 120;
}

// House 9 meter
object triplex_meter {
	name trip_meter9;
	phases AS;
	nominal_voltage 120;
}

// House 10 meter
object triplex_meter {
	name trip_meter10;
	phases AS;
	nominal_voltage 120;
}

// House 11 meter
object triplex_meter {
	name trip_meter11;
	phases BS;
	nominal_voltage 120;
}

// House 12 meter
object triplex_meter {
	name trip_meter12;
	phases CS;
	nominal_voltage 120;
}

// House 13 meter
object triplex_meter {
	name trip_meter13;
	phases AS;
	nominal_voltage 120;
}

// House 14 meter
object triplex_meter {
	name trip_meter14;
	phases BS;
	nominal_voltage 120;
}

// House 15 meter
object triplex_meter {
	name trip_meter15;
	phases CS;
	nominal_voltage 120;
}
object triplex_line_conductor {
      name Name_1_0_AA_triplex;
      resistance 0.57;
      geometric_mean_radius 0.0111;
}

object triplex_line_configuration {
  name triplex_line_config;
  conductor_1 Name_1_0_AA_triplex;
  conductor_2 Name_1_0_AA_triplex;
  conductor_N Name_1_0_AA_triplex;
  insulation_thickness 0.1;
  diameter 0.4;
}


// Switch
object switch:671692 {
	phases "ABCN";
	name SW671-692;
	from node:671;
	to node:692;
	status CLOSED;
}

// Transformer
object transformer_configuration:400 {
	connect_type WYE_WYE;
  	install_type PADMOUNT;
  	power_rating 500;
  	primary_voltage 4160;
  	secondary_voltage 480;
  	resistance 0.011;
  	reactance 0.02;
}

object transformer:633634 {
  	phases "ABCN";
  	name tr633-634;
  	from node:633;
  	to node:634;
  	configuration transformer_configuration:400;
}

object transformer_configuration {
	name AS_config;
	connect_type SINGLE_PHASE_CENTER_TAPPED;
	install_type POLETOP;
	powerA_rating 75;
	primary_voltage 2401;
	secondary_voltage 120.000;
	impedance 0.006+0.0136j;
}

object transformer_configuration {
	name BS_config;
	connect_type SINGLE_PHASE_CENTER_TAPPED;
	install_type POLETOP;
	powerB_rating 75;
	primary_voltage 2401;
	secondary_voltage 120.000;
	impedance 0.006+0.0136j;
}

object transformer_configuration {
	name CS_config;
	connect_type SINGLE_PHASE_CENTER_TAPPED;
	install_type POLETOP;
	powerC_rating 75;
	primary_voltage 2401;
	secondary_voltage 120.000;
	impedance 0.006+0.0136j;
}

object transformer_configuration {
	name AS_config_node634;
	connect_type SINGLE_PHASE_CENTER_TAPPED;
	install_type POLETOP;
	powerA_rating 75;
	primary_voltage 480.000;
	secondary_voltage 120.000;
	impedance 0.006+0.0136j;
}

object transformer_configuration {
	name BS_config_node634;
	connect_type SINGLE_PHASE_CENTER_TAPPED;
	install_type POLETOP;
	powerB_rating 75;
	primary_voltage 480.000;
	secondary_voltage 120.000;
	impedance 0.006+0.0136j;
}

object transformer_configuration {
	name CS_config_node634;
	connect_type SINGLE_PHASE_CENTER_TAPPED;
	install_type POLETOP;
	powerC_rating 75;
	primary_voltage 480.000;
	secondary_voltage 120.000;
	impedance 0.006+0.0136j;
}
//object auction {
//    name market;
//    period 600;
//    special_mode BUYERS_ONLY;
//    unit kW;
//    my_avg 5;
//    my_std 0.03;
//    property price;
//    object player {
//        file price.player;
//        loop 10;
//        property current_market.clearing_price;
//        property fixed_price;
//    };
//}
//object passive_controller {
//    period 600;
//    parent wh1;
//    control_mode PROBABILITY_OFF;
//    distribution_type NORMAL;
//    observation_object market;
//    observation_property fixed_price;
//    observation_property current_market.clearing_price;
//    stdev_observation_property my_std;
//    expectation_object market;
//    expectation_property my_avg;
//    comfort_level 9999;
//    state_property override;
//};

object house {
    name House1;
    breaker_amps 30;
    parent trip_meter1;
    object waterheater {
        name wh1;
        location INSIDE;
        water_demand demand;
        temperature 120;
        heat_mode ELECTRIC;
        heating_element_capacity 4.5 kW;
        thermostat_deadband 2;
        inlet_water_temperature 60;
        tank_setpoint setpoint;
//        tank_setpoint 119;
        tank_UA 3.3;
        tank_volume 50;
        object recorder {
            file "wh_13.csv";
            interval 600;
            property tank_setpoint,waterheater_model,power.real,constant_power,constant_current,water_demand,temperature,is_waterheater_on;
        };
    };
}
